*****************************
*     FPGA SPICE Netlist    *
* Description: Logic Block [1][1] in FPGA *
*    Author: Xifan TANG     *
* Organization: EPFL/IC/LSI *
* Date: Thu Nov 15 14:26:08 2018
 *
*****************************
***** Grid[1][1] type_descriptor: clb[0] *****
.subckt grid[1][1]_clb[0]_mode[clb]_fle[0]_mode[n1_lut6]_ble6[0]_mode[ble6]_lut6[0] lut6[0]->in[0] lut6[0]->in[1] lut6[0]->in[2] lut6[0]->in[3] lut6[0]->in[4] lut6[0]->in[5] lut6[0]->out[0] svdd sgnd
***** Truth Table for LUT[0], size=6. *****
***** SRAM bits for LUT[0], size=6, num_sram=64. *****
*****0000000000000000000000000000000000000000000000000000000000000000*****
Xsram[0] sram->in sram[0]->out sram[0]->outb gvdd_sram_luts sgnd  sram6T
.nodeset V(sram[0]->out) 0
.nodeset V(sram[0]->outb) vsp
Xsram[1] sram->in sram[1]->out sram[1]->outb gvdd_sram_luts sgnd  sram6T
.nodeset V(sram[1]->out) 0
.nodeset V(sram[1]->outb) vsp
Xsram[2] sram->in sram[2]->out sram[2]->outb gvdd_sram_luts sgnd  sram6T
.nodeset V(sram[2]->out) 0
.nodeset V(sram[2]->outb) vsp
Xsram[3] sram->in sram[3]->out sram[3]->outb gvdd_sram_luts sgnd  sram6T
.nodeset V(sram[3]->out) 0
.nodeset V(sram[3]->outb) vsp
Xsram[4] sram->in sram[4]->out sram[4]->outb gvdd_sram_luts sgnd  sram6T
.nodeset V(sram[4]->out) 0
.nodeset V(sram[4]->outb) vsp
Xsram[5] sram->in sram[5]->out sram[5]->outb gvdd_sram_luts sgnd  sram6T
.nodeset V(sram[5]->out) 0
.nodeset V(sram[5]->outb) vsp
Xsram[6] sram->in sram[6]->out sram[6]->outb gvdd_sram_luts sgnd  sram6T
.nodeset V(sram[6]->out) 0
.nodeset V(sram[6]->outb) vsp
Xsram[7] sram->in sram[7]->out sram[7]->outb gvdd_sram_luts sgnd  sram6T
.nodeset V(sram[7]->out) 0
.nodeset V(sram[7]->outb) vsp
Xsram[8] sram->in sram[8]->out sram[8]->outb gvdd_sram_luts sgnd  sram6T
.nodeset V(sram[8]->out) 0
.nodeset V(sram[8]->outb) vsp
Xsram[9] sram->in sram[9]->out sram[9]->outb gvdd_sram_luts sgnd  sram6T
.nodeset V(sram[9]->out) 0
.nodeset V(sram[9]->outb) vsp
Xsram[10] sram->in sram[10]->out sram[10]->outb gvdd_sram_luts sgnd  sram6T
.nodeset V(sram[10]->out) 0
.nodeset V(sram[10]->outb) vsp
Xsram[11] sram->in sram[11]->out sram[11]->outb gvdd_sram_luts sgnd  sram6T
.nodeset V(sram[11]->out) 0
.nodeset V(sram[11]->outb) vsp
Xsram[12] sram->in sram[12]->out sram[12]->outb gvdd_sram_luts sgnd  sram6T
.nodeset V(sram[12]->out) 0
.nodeset V(sram[12]->outb) vsp
Xsram[13] sram->in sram[13]->out sram[13]->outb gvdd_sram_luts sgnd  sram6T
.nodeset V(sram[13]->out) 0
.nodeset V(sram[13]->outb) vsp
Xsram[14] sram->in sram[14]->out sram[14]->outb gvdd_sram_luts sgnd  sram6T
.nodeset V(sram[14]->out) 0
.nodeset V(sram[14]->outb) vsp
Xsram[15] sram->in sram[15]->out sram[15]->outb gvdd_sram_luts sgnd  sram6T
.nodeset V(sram[15]->out) 0
.nodeset V(sram[15]->outb) vsp
Xsram[16] sram->in sram[16]->out sram[16]->outb gvdd_sram_luts sgnd  sram6T
.nodeset V(sram[16]->out) 0
.nodeset V(sram[16]->outb) vsp
Xsram[17] sram->in sram[17]->out sram[17]->outb gvdd_sram_luts sgnd  sram6T
.nodeset V(sram[17]->out) 0
.nodeset V(sram[17]->outb) vsp
Xsram[18] sram->in sram[18]->out sram[18]->outb gvdd_sram_luts sgnd  sram6T
.nodeset V(sram[18]->out) 0
.nodeset V(sram[18]->outb) vsp
Xsram[19] sram->in sram[19]->out sram[19]->outb gvdd_sram_luts sgnd  sram6T
.nodeset V(sram[19]->out) 0
.nodeset V(sram[19]->outb) vsp
Xsram[20] sram->in sram[20]->out sram[20]->outb gvdd_sram_luts sgnd  sram6T
.nodeset V(sram[20]->out) 0
.nodeset V(sram[20]->outb) vsp
Xsram[21] sram->in sram[21]->out sram[21]->outb gvdd_sram_luts sgnd  sram6T
.nodeset V(sram[21]->out) 0
.nodeset V(sram[21]->outb) vsp
Xsram[22] sram->in sram[22]->out sram[22]->outb gvdd_sram_luts sgnd  sram6T
.nodeset V(sram[22]->out) 0
.nodeset V(sram[22]->outb) vsp
Xsram[23] sram->in sram[23]->out sram[23]->outb gvdd_sram_luts sgnd  sram6T
.nodeset V(sram[23]->out) 0
.nodeset V(sram[23]->outb) vsp
Xsram[24] sram->in sram[24]->out sram[24]->outb gvdd_sram_luts sgnd  sram6T
.nodeset V(sram[24]->out) 0
.nodeset V(sram[24]->outb) vsp
Xsram[25] sram->in sram[25]->out sram[25]->outb gvdd_sram_luts sgnd  sram6T
.nodeset V(sram[25]->out) 0
.nodeset V(sram[25]->outb) vsp
Xsram[26] sram->in sram[26]->out sram[26]->outb gvdd_sram_luts sgnd  sram6T
.nodeset V(sram[26]->out) 0
.nodeset V(sram[26]->outb) vsp
Xsram[27] sram->in sram[27]->out sram[27]->outb gvdd_sram_luts sgnd  sram6T
.nodeset V(sram[27]->out) 0
.nodeset V(sram[27]->outb) vsp
Xsram[28] sram->in sram[28]->out sram[28]->outb gvdd_sram_luts sgnd  sram6T
.nodeset V(sram[28]->out) 0
.nodeset V(sram[28]->outb) vsp
Xsram[29] sram->in sram[29]->out sram[29]->outb gvdd_sram_luts sgnd  sram6T
.nodeset V(sram[29]->out) 0
.nodeset V(sram[29]->outb) vsp
Xsram[30] sram->in sram[30]->out sram[30]->outb gvdd_sram_luts sgnd  sram6T
.nodeset V(sram[30]->out) 0
.nodeset V(sram[30]->outb) vsp
Xsram[31] sram->in sram[31]->out sram[31]->outb gvdd_sram_luts sgnd  sram6T
.nodeset V(sram[31]->out) 0
.nodeset V(sram[31]->outb) vsp
Xsram[32] sram->in sram[32]->out sram[32]->outb gvdd_sram_luts sgnd  sram6T
.nodeset V(sram[32]->out) 0
.nodeset V(sram[32]->outb) vsp
Xsram[33] sram->in sram[33]->out sram[33]->outb gvdd_sram_luts sgnd  sram6T
.nodeset V(sram[33]->out) 0
.nodeset V(sram[33]->outb) vsp
Xsram[34] sram->in sram[34]->out sram[34]->outb gvdd_sram_luts sgnd  sram6T
.nodeset V(sram[34]->out) 0
.nodeset V(sram[34]->outb) vsp
Xsram[35] sram->in sram[35]->out sram[35]->outb gvdd_sram_luts sgnd  sram6T
.nodeset V(sram[35]->out) 0
.nodeset V(sram[35]->outb) vsp
Xsram[36] sram->in sram[36]->out sram[36]->outb gvdd_sram_luts sgnd  sram6T
.nodeset V(sram[36]->out) 0
.nodeset V(sram[36]->outb) vsp
Xsram[37] sram->in sram[37]->out sram[37]->outb gvdd_sram_luts sgnd  sram6T
.nodeset V(sram[37]->out) 0
.nodeset V(sram[37]->outb) vsp
Xsram[38] sram->in sram[38]->out sram[38]->outb gvdd_sram_luts sgnd  sram6T
.nodeset V(sram[38]->out) 0
.nodeset V(sram[38]->outb) vsp
Xsram[39] sram->in sram[39]->out sram[39]->outb gvdd_sram_luts sgnd  sram6T
.nodeset V(sram[39]->out) 0
.nodeset V(sram[39]->outb) vsp
Xsram[40] sram->in sram[40]->out sram[40]->outb gvdd_sram_luts sgnd  sram6T
.nodeset V(sram[40]->out) 0
.nodeset V(sram[40]->outb) vsp
Xsram[41] sram->in sram[41]->out sram[41]->outb gvdd_sram_luts sgnd  sram6T
.nodeset V(sram[41]->out) 0
.nodeset V(sram[41]->outb) vsp
Xsram[42] sram->in sram[42]->out sram[42]->outb gvdd_sram_luts sgnd  sram6T
.nodeset V(sram[42]->out) 0
.nodeset V(sram[42]->outb) vsp
Xsram[43] sram->in sram[43]->out sram[43]->outb gvdd_sram_luts sgnd  sram6T
.nodeset V(sram[43]->out) 0
.nodeset V(sram[43]->outb) vsp
Xsram[44] sram->in sram[44]->out sram[44]->outb gvdd_sram_luts sgnd  sram6T
.nodeset V(sram[44]->out) 0
.nodeset V(sram[44]->outb) vsp
Xsram[45] sram->in sram[45]->out sram[45]->outb gvdd_sram_luts sgnd  sram6T
.nodeset V(sram[45]->out) 0
.nodeset V(sram[45]->outb) vsp
Xsram[46] sram->in sram[46]->out sram[46]->outb gvdd_sram_luts sgnd  sram6T
.nodeset V(sram[46]->out) 0
.nodeset V(sram[46]->outb) vsp
Xsram[47] sram->in sram[47]->out sram[47]->outb gvdd_sram_luts sgnd  sram6T
.nodeset V(sram[47]->out) 0
.nodeset V(sram[47]->outb) vsp
Xsram[48] sram->in sram[48]->out sram[48]->outb gvdd_sram_luts sgnd  sram6T
.nodeset V(sram[48]->out) 0
.nodeset V(sram[48]->outb) vsp
Xsram[49] sram->in sram[49]->out sram[49]->outb gvdd_sram_luts sgnd  sram6T
.nodeset V(sram[49]->out) 0
.nodeset V(sram[49]->outb) vsp
Xsram[50] sram->in sram[50]->out sram[50]->outb gvdd_sram_luts sgnd  sram6T
.nodeset V(sram[50]->out) 0
.nodeset V(sram[50]->outb) vsp
Xsram[51] sram->in sram[51]->out sram[51]->outb gvdd_sram_luts sgnd  sram6T
.nodeset V(sram[51]->out) 0
.nodeset V(sram[51]->outb) vsp
Xsram[52] sram->in sram[52]->out sram[52]->outb gvdd_sram_luts sgnd  sram6T
.nodeset V(sram[52]->out) 0
.nodeset V(sram[52]->outb) vsp
Xsram[53] sram->in sram[53]->out sram[53]->outb gvdd_sram_luts sgnd  sram6T
.nodeset V(sram[53]->out) 0
.nodeset V(sram[53]->outb) vsp
Xsram[54] sram->in sram[54]->out sram[54]->outb gvdd_sram_luts sgnd  sram6T
.nodeset V(sram[54]->out) 0
.nodeset V(sram[54]->outb) vsp
Xsram[55] sram->in sram[55]->out sram[55]->outb gvdd_sram_luts sgnd  sram6T
.nodeset V(sram[55]->out) 0
.nodeset V(sram[55]->outb) vsp
Xsram[56] sram->in sram[56]->out sram[56]->outb gvdd_sram_luts sgnd  sram6T
.nodeset V(sram[56]->out) 0
.nodeset V(sram[56]->outb) vsp
Xsram[57] sram->in sram[57]->out sram[57]->outb gvdd_sram_luts sgnd  sram6T
.nodeset V(sram[57]->out) 0
.nodeset V(sram[57]->outb) vsp
Xsram[58] sram->in sram[58]->out sram[58]->outb gvdd_sram_luts sgnd  sram6T
.nodeset V(sram[58]->out) 0
.nodeset V(sram[58]->outb) vsp
Xsram[59] sram->in sram[59]->out sram[59]->outb gvdd_sram_luts sgnd  sram6T
.nodeset V(sram[59]->out) 0
.nodeset V(sram[59]->outb) vsp
Xsram[60] sram->in sram[60]->out sram[60]->outb gvdd_sram_luts sgnd  sram6T
.nodeset V(sram[60]->out) 0
.nodeset V(sram[60]->outb) vsp
Xsram[61] sram->in sram[61]->out sram[61]->outb gvdd_sram_luts sgnd  sram6T
.nodeset V(sram[61]->out) 0
.nodeset V(sram[61]->outb) vsp
Xsram[62] sram->in sram[62]->out sram[62]->outb gvdd_sram_luts sgnd  sram6T
.nodeset V(sram[62]->out) 0
.nodeset V(sram[62]->outb) vsp
Xsram[63] sram->in sram[63]->out sram[63]->outb gvdd_sram_luts sgnd  sram6T
.nodeset V(sram[63]->out) 0
.nodeset V(sram[63]->outb) vsp
Xlut6[0] lut6[0]->in[0] lut6[0]->in[1] lut6[0]->in[2] lut6[0]->in[3] lut6[0]->in[4] lut6[0]->in[5] lut6[0]->out[0] sram[0]->out sram[1]->out sram[2]->out sram[3]->out sram[4]->out sram[5]->out sram[6]->out sram[7]->out sram[8]->out sram[9]->out sram[10]->out sram[11]->out sram[12]->out sram[13]->out sram[14]->out sram[15]->out sram[16]->out sram[17]->out sram[18]->out sram[19]->out sram[20]->out sram[21]->out sram[22]->out sram[23]->out sram[24]->out sram[25]->out sram[26]->out sram[27]->out sram[28]->out sram[29]->out sram[30]->out sram[31]->out sram[32]->out sram[33]->out sram[34]->out sram[35]->out sram[36]->out sram[37]->out sram[38]->out sram[39]->out sram[40]->out sram[41]->out sram[42]->out sram[43]->out sram[44]->out sram[45]->out sram[46]->out sram[47]->out sram[48]->out sram[49]->out sram[50]->out sram[51]->out sram[52]->out sram[53]->out sram[54]->out sram[55]->out sram[56]->out sram[57]->out sram[58]->out sram[59]->out sram[60]->out sram[61]->out sram[62]->out sram[63]->out gvdd_lut6[0] sgnd lut6
.eom
.subckt grid[1][1]_clb[0]_mode[clb]_fle[0]_mode[n1_lut6]_ble6[0]_mode[ble6]_ff[0] ff[0]->D[0] ff[0]->Q[0] svdd sgnd
Xdff[0] 
***** BEGIN Global ports of SPICE_MODEL(static_dff) *****
+  Set[0]  Reset[0]  clk[0] 
***** END Global ports of SPICE_MODEL(static_dff) *****
+ ff[0]->D[0] ff[0]->Q[0] gvdd_dff[0] sgnd static_dff
.nodeset V(ff[0]->Q[0]) 0
.eom
.subckt grid[1][1]_clb[0]_mode[clb]_fle[0]_mode[n1_lut6]_ble6[0]_mode[ble6] mode[ble6]->in[0] mode[ble6]->in[1] mode[ble6]->in[2] mode[ble6]->in[3] mode[ble6]->in[4] mode[ble6]->in[5] mode[ble6]->out[0] mode[ble6]->clk[0] svdd sgnd
Xlut6[0] lut6[0]->in[0] lut6[0]->in[1] lut6[0]->in[2] lut6[0]->in[3] lut6[0]->in[4] lut6[0]->in[5] lut6[0]->out[0] svdd sgnd grid[1][1]_clb[0]_mode[clb]_fle[0]_mode[n1_lut6]_ble6[0]_mode[ble6]_lut6[0]
Xff[0] ff[0]->D[0] ff[0]->Q[0] svdd sgnd grid[1][1]_clb[0]_mode[clb]_fle[0]_mode[n1_lut6]_ble6[0]_mode[ble6]_ff[0]
Xmux_1level_tapbuf_size2[0] ff[0]->Q[0] lut6[0]->out[0] mode[ble6]->out[0] sram[64]->outb sram[64]->out gvdd_local_interc sgnd mux_1level_tapbuf_size2
***** SRAM bits for MUX[0], level=1, select_path_id=0. *****
*****1*****
Xsram[64] sram->in sram[64]->out sram[64]->outb gvdd_sram_local_routing sgnd  sram6T
.nodeset V(sram[64]->out) 0
.nodeset V(sram[64]->outb) vsp
Xdirect_interc[0] mode[ble6]->in[0] lut6[0]->in[0] gvdd_local_interc sgnd direct_interc
Xdirect_interc[1] mode[ble6]->in[1] lut6[0]->in[1] gvdd_local_interc sgnd direct_interc
Xdirect_interc[2] mode[ble6]->in[2] lut6[0]->in[2] gvdd_local_interc sgnd direct_interc
Xdirect_interc[3] mode[ble6]->in[3] lut6[0]->in[3] gvdd_local_interc sgnd direct_interc
Xdirect_interc[4] mode[ble6]->in[4] lut6[0]->in[4] gvdd_local_interc sgnd direct_interc
Xdirect_interc[5] mode[ble6]->in[5] lut6[0]->in[5] gvdd_local_interc sgnd direct_interc
Xdirect_interc[6] lut6[0]->out[0] ff[0]->D[0] gvdd_local_interc sgnd direct_interc
Xdirect_interc[7] mode[ble6]->clk[0] ff[0]->clk[0] gvdd_local_interc sgnd direct_interc
.eom
.subckt grid[1][1]_clb[0]_mode[clb]_fle[0]_mode[n1_lut6] mode[n1_lut6]->in[0] mode[n1_lut6]->in[1] mode[n1_lut6]->in[2] mode[n1_lut6]->in[3] mode[n1_lut6]->in[4] mode[n1_lut6]->in[5] mode[n1_lut6]->out[0] mode[n1_lut6]->clk[0] svdd sgnd
Xble6[0] ble6[0]->in[0] ble6[0]->in[1] ble6[0]->in[2] ble6[0]->in[3] ble6[0]->in[4] ble6[0]->in[5] ble6[0]->out[0] ble6[0]->clk[0] svdd sgnd grid[1][1]_clb[0]_mode[clb]_fle[0]_mode[n1_lut6]_ble6[0]_mode[ble6]
Xdirect_interc[8] ble6[0]->out[0] mode[n1_lut6]->out[0] gvdd_local_interc sgnd direct_interc
Xdirect_interc[9] mode[n1_lut6]->in[0] ble6[0]->in[0] gvdd_local_interc sgnd direct_interc
Xdirect_interc[10] mode[n1_lut6]->in[1] ble6[0]->in[1] gvdd_local_interc sgnd direct_interc
Xdirect_interc[11] mode[n1_lut6]->in[2] ble6[0]->in[2] gvdd_local_interc sgnd direct_interc
Xdirect_interc[12] mode[n1_lut6]->in[3] ble6[0]->in[3] gvdd_local_interc sgnd direct_interc
Xdirect_interc[13] mode[n1_lut6]->in[4] ble6[0]->in[4] gvdd_local_interc sgnd direct_interc
Xdirect_interc[14] mode[n1_lut6]->in[5] ble6[0]->in[5] gvdd_local_interc sgnd direct_interc
Xdirect_interc[15] mode[n1_lut6]->clk[0] ble6[0]->clk[0] gvdd_local_interc sgnd direct_interc
.eom
.subckt grid[1][1]_clb[0]_mode[clb]_fle[1]_mode[n1_lut6]_ble6[0]_mode[ble6]_lut6[0] lut6[0]->in[0] lut6[0]->in[1] lut6[0]->in[2] lut6[0]->in[3] lut6[0]->in[4] lut6[0]->in[5] lut6[0]->out[0] svdd sgnd
***** Truth Table for LUT[1], size=6. *****
***** SRAM bits for LUT[1], size=6, num_sram=64. *****
*****0000000000000000000000000000000000000000000000000000000000000000*****
Xsram[65] sram->in sram[65]->out sram[65]->outb gvdd_sram_luts sgnd  sram6T
.nodeset V(sram[65]->out) 0
.nodeset V(sram[65]->outb) vsp
Xsram[66] sram->in sram[66]->out sram[66]->outb gvdd_sram_luts sgnd  sram6T
.nodeset V(sram[66]->out) 0
.nodeset V(sram[66]->outb) vsp
Xsram[67] sram->in sram[67]->out sram[67]->outb gvdd_sram_luts sgnd  sram6T
.nodeset V(sram[67]->out) 0
.nodeset V(sram[67]->outb) vsp
Xsram[68] sram->in sram[68]->out sram[68]->outb gvdd_sram_luts sgnd  sram6T
.nodeset V(sram[68]->out) 0
.nodeset V(sram[68]->outb) vsp
Xsram[69] sram->in sram[69]->out sram[69]->outb gvdd_sram_luts sgnd  sram6T
.nodeset V(sram[69]->out) 0
.nodeset V(sram[69]->outb) vsp
Xsram[70] sram->in sram[70]->out sram[70]->outb gvdd_sram_luts sgnd  sram6T
.nodeset V(sram[70]->out) 0
.nodeset V(sram[70]->outb) vsp
Xsram[71] sram->in sram[71]->out sram[71]->outb gvdd_sram_luts sgnd  sram6T
.nodeset V(sram[71]->out) 0
.nodeset V(sram[71]->outb) vsp
Xsram[72] sram->in sram[72]->out sram[72]->outb gvdd_sram_luts sgnd  sram6T
.nodeset V(sram[72]->out) 0
.nodeset V(sram[72]->outb) vsp
Xsram[73] sram->in sram[73]->out sram[73]->outb gvdd_sram_luts sgnd  sram6T
.nodeset V(sram[73]->out) 0
.nodeset V(sram[73]->outb) vsp
Xsram[74] sram->in sram[74]->out sram[74]->outb gvdd_sram_luts sgnd  sram6T
.nodeset V(sram[74]->out) 0
.nodeset V(sram[74]->outb) vsp
Xsram[75] sram->in sram[75]->out sram[75]->outb gvdd_sram_luts sgnd  sram6T
.nodeset V(sram[75]->out) 0
.nodeset V(sram[75]->outb) vsp
Xsram[76] sram->in sram[76]->out sram[76]->outb gvdd_sram_luts sgnd  sram6T
.nodeset V(sram[76]->out) 0
.nodeset V(sram[76]->outb) vsp
Xsram[77] sram->in sram[77]->out sram[77]->outb gvdd_sram_luts sgnd  sram6T
.nodeset V(sram[77]->out) 0
.nodeset V(sram[77]->outb) vsp
Xsram[78] sram->in sram[78]->out sram[78]->outb gvdd_sram_luts sgnd  sram6T
.nodeset V(sram[78]->out) 0
.nodeset V(sram[78]->outb) vsp
Xsram[79] sram->in sram[79]->out sram[79]->outb gvdd_sram_luts sgnd  sram6T
.nodeset V(sram[79]->out) 0
.nodeset V(sram[79]->outb) vsp
Xsram[80] sram->in sram[80]->out sram[80]->outb gvdd_sram_luts sgnd  sram6T
.nodeset V(sram[80]->out) 0
.nodeset V(sram[80]->outb) vsp
Xsram[81] sram->in sram[81]->out sram[81]->outb gvdd_sram_luts sgnd  sram6T
.nodeset V(sram[81]->out) 0
.nodeset V(sram[81]->outb) vsp
Xsram[82] sram->in sram[82]->out sram[82]->outb gvdd_sram_luts sgnd  sram6T
.nodeset V(sram[82]->out) 0
.nodeset V(sram[82]->outb) vsp
Xsram[83] sram->in sram[83]->out sram[83]->outb gvdd_sram_luts sgnd  sram6T
.nodeset V(sram[83]->out) 0
.nodeset V(sram[83]->outb) vsp
Xsram[84] sram->in sram[84]->out sram[84]->outb gvdd_sram_luts sgnd  sram6T
.nodeset V(sram[84]->out) 0
.nodeset V(sram[84]->outb) vsp
Xsram[85] sram->in sram[85]->out sram[85]->outb gvdd_sram_luts sgnd  sram6T
.nodeset V(sram[85]->out) 0
.nodeset V(sram[85]->outb) vsp
Xsram[86] sram->in sram[86]->out sram[86]->outb gvdd_sram_luts sgnd  sram6T
.nodeset V(sram[86]->out) 0
.nodeset V(sram[86]->outb) vsp
Xsram[87] sram->in sram[87]->out sram[87]->outb gvdd_sram_luts sgnd  sram6T
.nodeset V(sram[87]->out) 0
.nodeset V(sram[87]->outb) vsp
Xsram[88] sram->in sram[88]->out sram[88]->outb gvdd_sram_luts sgnd  sram6T
.nodeset V(sram[88]->out) 0
.nodeset V(sram[88]->outb) vsp
Xsram[89] sram->in sram[89]->out sram[89]->outb gvdd_sram_luts sgnd  sram6T
.nodeset V(sram[89]->out) 0
.nodeset V(sram[89]->outb) vsp
Xsram[90] sram->in sram[90]->out sram[90]->outb gvdd_sram_luts sgnd  sram6T
.nodeset V(sram[90]->out) 0
.nodeset V(sram[90]->outb) vsp
Xsram[91] sram->in sram[91]->out sram[91]->outb gvdd_sram_luts sgnd  sram6T
.nodeset V(sram[91]->out) 0
.nodeset V(sram[91]->outb) vsp
Xsram[92] sram->in sram[92]->out sram[92]->outb gvdd_sram_luts sgnd  sram6T
.nodeset V(sram[92]->out) 0
.nodeset V(sram[92]->outb) vsp
Xsram[93] sram->in sram[93]->out sram[93]->outb gvdd_sram_luts sgnd  sram6T
.nodeset V(sram[93]->out) 0
.nodeset V(sram[93]->outb) vsp
Xsram[94] sram->in sram[94]->out sram[94]->outb gvdd_sram_luts sgnd  sram6T
.nodeset V(sram[94]->out) 0
.nodeset V(sram[94]->outb) vsp
Xsram[95] sram->in sram[95]->out sram[95]->outb gvdd_sram_luts sgnd  sram6T
.nodeset V(sram[95]->out) 0
.nodeset V(sram[95]->outb) vsp
Xsram[96] sram->in sram[96]->out sram[96]->outb gvdd_sram_luts sgnd  sram6T
.nodeset V(sram[96]->out) 0
.nodeset V(sram[96]->outb) vsp
Xsram[97] sram->in sram[97]->out sram[97]->outb gvdd_sram_luts sgnd  sram6T
.nodeset V(sram[97]->out) 0
.nodeset V(sram[97]->outb) vsp
Xsram[98] sram->in sram[98]->out sram[98]->outb gvdd_sram_luts sgnd  sram6T
.nodeset V(sram[98]->out) 0
.nodeset V(sram[98]->outb) vsp
Xsram[99] sram->in sram[99]->out sram[99]->outb gvdd_sram_luts sgnd  sram6T
.nodeset V(sram[99]->out) 0
.nodeset V(sram[99]->outb) vsp
Xsram[100] sram->in sram[100]->out sram[100]->outb gvdd_sram_luts sgnd  sram6T
.nodeset V(sram[100]->out) 0
.nodeset V(sram[100]->outb) vsp
Xsram[101] sram->in sram[101]->out sram[101]->outb gvdd_sram_luts sgnd  sram6T
.nodeset V(sram[101]->out) 0
.nodeset V(sram[101]->outb) vsp
Xsram[102] sram->in sram[102]->out sram[102]->outb gvdd_sram_luts sgnd  sram6T
.nodeset V(sram[102]->out) 0
.nodeset V(sram[102]->outb) vsp
Xsram[103] sram->in sram[103]->out sram[103]->outb gvdd_sram_luts sgnd  sram6T
.nodeset V(sram[103]->out) 0
.nodeset V(sram[103]->outb) vsp
Xsram[104] sram->in sram[104]->out sram[104]->outb gvdd_sram_luts sgnd  sram6T
.nodeset V(sram[104]->out) 0
.nodeset V(sram[104]->outb) vsp
Xsram[105] sram->in sram[105]->out sram[105]->outb gvdd_sram_luts sgnd  sram6T
.nodeset V(sram[105]->out) 0
.nodeset V(sram[105]->outb) vsp
Xsram[106] sram->in sram[106]->out sram[106]->outb gvdd_sram_luts sgnd  sram6T
.nodeset V(sram[106]->out) 0
.nodeset V(sram[106]->outb) vsp
Xsram[107] sram->in sram[107]->out sram[107]->outb gvdd_sram_luts sgnd  sram6T
.nodeset V(sram[107]->out) 0
.nodeset V(sram[107]->outb) vsp
Xsram[108] sram->in sram[108]->out sram[108]->outb gvdd_sram_luts sgnd  sram6T
.nodeset V(sram[108]->out) 0
.nodeset V(sram[108]->outb) vsp
Xsram[109] sram->in sram[109]->out sram[109]->outb gvdd_sram_luts sgnd  sram6T
.nodeset V(sram[109]->out) 0
.nodeset V(sram[109]->outb) vsp
Xsram[110] sram->in sram[110]->out sram[110]->outb gvdd_sram_luts sgnd  sram6T
.nodeset V(sram[110]->out) 0
.nodeset V(sram[110]->outb) vsp
Xsram[111] sram->in sram[111]->out sram[111]->outb gvdd_sram_luts sgnd  sram6T
.nodeset V(sram[111]->out) 0
.nodeset V(sram[111]->outb) vsp
Xsram[112] sram->in sram[112]->out sram[112]->outb gvdd_sram_luts sgnd  sram6T
.nodeset V(sram[112]->out) 0
.nodeset V(sram[112]->outb) vsp
Xsram[113] sram->in sram[113]->out sram[113]->outb gvdd_sram_luts sgnd  sram6T
.nodeset V(sram[113]->out) 0
.nodeset V(sram[113]->outb) vsp
Xsram[114] sram->in sram[114]->out sram[114]->outb gvdd_sram_luts sgnd  sram6T
.nodeset V(sram[114]->out) 0
.nodeset V(sram[114]->outb) vsp
Xsram[115] sram->in sram[115]->out sram[115]->outb gvdd_sram_luts sgnd  sram6T
.nodeset V(sram[115]->out) 0
.nodeset V(sram[115]->outb) vsp
Xsram[116] sram->in sram[116]->out sram[116]->outb gvdd_sram_luts sgnd  sram6T
.nodeset V(sram[116]->out) 0
.nodeset V(sram[116]->outb) vsp
Xsram[117] sram->in sram[117]->out sram[117]->outb gvdd_sram_luts sgnd  sram6T
.nodeset V(sram[117]->out) 0
.nodeset V(sram[117]->outb) vsp
Xsram[118] sram->in sram[118]->out sram[118]->outb gvdd_sram_luts sgnd  sram6T
.nodeset V(sram[118]->out) 0
.nodeset V(sram[118]->outb) vsp
Xsram[119] sram->in sram[119]->out sram[119]->outb gvdd_sram_luts sgnd  sram6T
.nodeset V(sram[119]->out) 0
.nodeset V(sram[119]->outb) vsp
Xsram[120] sram->in sram[120]->out sram[120]->outb gvdd_sram_luts sgnd  sram6T
.nodeset V(sram[120]->out) 0
.nodeset V(sram[120]->outb) vsp
Xsram[121] sram->in sram[121]->out sram[121]->outb gvdd_sram_luts sgnd  sram6T
.nodeset V(sram[121]->out) 0
.nodeset V(sram[121]->outb) vsp
Xsram[122] sram->in sram[122]->out sram[122]->outb gvdd_sram_luts sgnd  sram6T
.nodeset V(sram[122]->out) 0
.nodeset V(sram[122]->outb) vsp
Xsram[123] sram->in sram[123]->out sram[123]->outb gvdd_sram_luts sgnd  sram6T
.nodeset V(sram[123]->out) 0
.nodeset V(sram[123]->outb) vsp
Xsram[124] sram->in sram[124]->out sram[124]->outb gvdd_sram_luts sgnd  sram6T
.nodeset V(sram[124]->out) 0
.nodeset V(sram[124]->outb) vsp
Xsram[125] sram->in sram[125]->out sram[125]->outb gvdd_sram_luts sgnd  sram6T
.nodeset V(sram[125]->out) 0
.nodeset V(sram[125]->outb) vsp
Xsram[126] sram->in sram[126]->out sram[126]->outb gvdd_sram_luts sgnd  sram6T
.nodeset V(sram[126]->out) 0
.nodeset V(sram[126]->outb) vsp
Xsram[127] sram->in sram[127]->out sram[127]->outb gvdd_sram_luts sgnd  sram6T
.nodeset V(sram[127]->out) 0
.nodeset V(sram[127]->outb) vsp
Xsram[128] sram->in sram[128]->out sram[128]->outb gvdd_sram_luts sgnd  sram6T
.nodeset V(sram[128]->out) 0
.nodeset V(sram[128]->outb) vsp
Xlut6[1] lut6[0]->in[0] lut6[0]->in[1] lut6[0]->in[2] lut6[0]->in[3] lut6[0]->in[4] lut6[0]->in[5] lut6[0]->out[0] sram[65]->out sram[66]->out sram[67]->out sram[68]->out sram[69]->out sram[70]->out sram[71]->out sram[72]->out sram[73]->out sram[74]->out sram[75]->out sram[76]->out sram[77]->out sram[78]->out sram[79]->out sram[80]->out sram[81]->out sram[82]->out sram[83]->out sram[84]->out sram[85]->out sram[86]->out sram[87]->out sram[88]->out sram[89]->out sram[90]->out sram[91]->out sram[92]->out sram[93]->out sram[94]->out sram[95]->out sram[96]->out sram[97]->out sram[98]->out sram[99]->out sram[100]->out sram[101]->out sram[102]->out sram[103]->out sram[104]->out sram[105]->out sram[106]->out sram[107]->out sram[108]->out sram[109]->out sram[110]->out sram[111]->out sram[112]->out sram[113]->out sram[114]->out sram[115]->out sram[116]->out sram[117]->out sram[118]->out sram[119]->out sram[120]->out sram[121]->out sram[122]->out sram[123]->out sram[124]->out sram[125]->out sram[126]->out sram[127]->out sram[128]->out gvdd_lut6[1] sgnd lut6
.eom
.subckt grid[1][1]_clb[0]_mode[clb]_fle[1]_mode[n1_lut6]_ble6[0]_mode[ble6]_ff[0] ff[0]->D[0] ff[0]->Q[0] svdd sgnd
Xdff[1] 
***** BEGIN Global ports of SPICE_MODEL(static_dff) *****
+  Set[0]  Reset[0]  clk[0] 
***** END Global ports of SPICE_MODEL(static_dff) *****
+ ff[0]->D[0] ff[0]->Q[0] gvdd_dff[1] sgnd static_dff
.nodeset V(ff[0]->Q[0]) 0
.eom
.subckt grid[1][1]_clb[0]_mode[clb]_fle[1]_mode[n1_lut6]_ble6[0]_mode[ble6] mode[ble6]->in[0] mode[ble6]->in[1] mode[ble6]->in[2] mode[ble6]->in[3] mode[ble6]->in[4] mode[ble6]->in[5] mode[ble6]->out[0] mode[ble6]->clk[0] svdd sgnd
Xlut6[0] lut6[0]->in[0] lut6[0]->in[1] lut6[0]->in[2] lut6[0]->in[3] lut6[0]->in[4] lut6[0]->in[5] lut6[0]->out[0] svdd sgnd grid[1][1]_clb[0]_mode[clb]_fle[1]_mode[n1_lut6]_ble6[0]_mode[ble6]_lut6[0]
Xff[0] ff[0]->D[0] ff[0]->Q[0] svdd sgnd grid[1][1]_clb[0]_mode[clb]_fle[1]_mode[n1_lut6]_ble6[0]_mode[ble6]_ff[0]
Xmux_1level_tapbuf_size2[1] ff[0]->Q[0] lut6[0]->out[0] mode[ble6]->out[0] sram[129]->outb sram[129]->out gvdd_local_interc sgnd mux_1level_tapbuf_size2
***** SRAM bits for MUX[1], level=1, select_path_id=0. *****
*****1*****
Xsram[129] sram->in sram[129]->out sram[129]->outb gvdd_sram_local_routing sgnd  sram6T
.nodeset V(sram[129]->out) 0
.nodeset V(sram[129]->outb) vsp
Xdirect_interc[16] mode[ble6]->in[0] lut6[0]->in[0] gvdd_local_interc sgnd direct_interc
Xdirect_interc[17] mode[ble6]->in[1] lut6[0]->in[1] gvdd_local_interc sgnd direct_interc
Xdirect_interc[18] mode[ble6]->in[2] lut6[0]->in[2] gvdd_local_interc sgnd direct_interc
Xdirect_interc[19] mode[ble6]->in[3] lut6[0]->in[3] gvdd_local_interc sgnd direct_interc
Xdirect_interc[20] mode[ble6]->in[4] lut6[0]->in[4] gvdd_local_interc sgnd direct_interc
Xdirect_interc[21] mode[ble6]->in[5] lut6[0]->in[5] gvdd_local_interc sgnd direct_interc
Xdirect_interc[22] lut6[0]->out[0] ff[0]->D[0] gvdd_local_interc sgnd direct_interc
Xdirect_interc[23] mode[ble6]->clk[0] ff[0]->clk[0] gvdd_local_interc sgnd direct_interc
.eom
.subckt grid[1][1]_clb[0]_mode[clb]_fle[1]_mode[n1_lut6] mode[n1_lut6]->in[0] mode[n1_lut6]->in[1] mode[n1_lut6]->in[2] mode[n1_lut6]->in[3] mode[n1_lut6]->in[4] mode[n1_lut6]->in[5] mode[n1_lut6]->out[0] mode[n1_lut6]->clk[0] svdd sgnd
Xble6[0] ble6[0]->in[0] ble6[0]->in[1] ble6[0]->in[2] ble6[0]->in[3] ble6[0]->in[4] ble6[0]->in[5] ble6[0]->out[0] ble6[0]->clk[0] svdd sgnd grid[1][1]_clb[0]_mode[clb]_fle[1]_mode[n1_lut6]_ble6[0]_mode[ble6]
Xdirect_interc[24] ble6[0]->out[0] mode[n1_lut6]->out[0] gvdd_local_interc sgnd direct_interc
Xdirect_interc[25] mode[n1_lut6]->in[0] ble6[0]->in[0] gvdd_local_interc sgnd direct_interc
Xdirect_interc[26] mode[n1_lut6]->in[1] ble6[0]->in[1] gvdd_local_interc sgnd direct_interc
Xdirect_interc[27] mode[n1_lut6]->in[2] ble6[0]->in[2] gvdd_local_interc sgnd direct_interc
Xdirect_interc[28] mode[n1_lut6]->in[3] ble6[0]->in[3] gvdd_local_interc sgnd direct_interc
Xdirect_interc[29] mode[n1_lut6]->in[4] ble6[0]->in[4] gvdd_local_interc sgnd direct_interc
Xdirect_interc[30] mode[n1_lut6]->in[5] ble6[0]->in[5] gvdd_local_interc sgnd direct_interc
Xdirect_interc[31] mode[n1_lut6]->clk[0] ble6[0]->clk[0] gvdd_local_interc sgnd direct_interc
.eom
.subckt grid[1][1]_clb[0]_mode[clb]_fle[2]_mode[n1_lut6]_ble6[0]_mode[ble6]_lut6[0] lut6[0]->in[0] lut6[0]->in[1] lut6[0]->in[2] lut6[0]->in[3] lut6[0]->in[4] lut6[0]->in[5] lut6[0]->out[0] svdd sgnd
***** Truth Table for LUT[2], size=6. *****
***** SRAM bits for LUT[2], size=6, num_sram=64. *****
*****0000000000000000000000000000000000000000000000000000000000000000*****
Xsram[130] sram->in sram[130]->out sram[130]->outb gvdd_sram_luts sgnd  sram6T
.nodeset V(sram[130]->out) 0
.nodeset V(sram[130]->outb) vsp
Xsram[131] sram->in sram[131]->out sram[131]->outb gvdd_sram_luts sgnd  sram6T
.nodeset V(sram[131]->out) 0
.nodeset V(sram[131]->outb) vsp
Xsram[132] sram->in sram[132]->out sram[132]->outb gvdd_sram_luts sgnd  sram6T
.nodeset V(sram[132]->out) 0
.nodeset V(sram[132]->outb) vsp
Xsram[133] sram->in sram[133]->out sram[133]->outb gvdd_sram_luts sgnd  sram6T
.nodeset V(sram[133]->out) 0
.nodeset V(sram[133]->outb) vsp
Xsram[134] sram->in sram[134]->out sram[134]->outb gvdd_sram_luts sgnd  sram6T
.nodeset V(sram[134]->out) 0
.nodeset V(sram[134]->outb) vsp
Xsram[135] sram->in sram[135]->out sram[135]->outb gvdd_sram_luts sgnd  sram6T
.nodeset V(sram[135]->out) 0
.nodeset V(sram[135]->outb) vsp
Xsram[136] sram->in sram[136]->out sram[136]->outb gvdd_sram_luts sgnd  sram6T
.nodeset V(sram[136]->out) 0
.nodeset V(sram[136]->outb) vsp
Xsram[137] sram->in sram[137]->out sram[137]->outb gvdd_sram_luts sgnd  sram6T
.nodeset V(sram[137]->out) 0
.nodeset V(sram[137]->outb) vsp
Xsram[138] sram->in sram[138]->out sram[138]->outb gvdd_sram_luts sgnd  sram6T
.nodeset V(sram[138]->out) 0
.nodeset V(sram[138]->outb) vsp
Xsram[139] sram->in sram[139]->out sram[139]->outb gvdd_sram_luts sgnd  sram6T
.nodeset V(sram[139]->out) 0
.nodeset V(sram[139]->outb) vsp
Xsram[140] sram->in sram[140]->out sram[140]->outb gvdd_sram_luts sgnd  sram6T
.nodeset V(sram[140]->out) 0
.nodeset V(sram[140]->outb) vsp
Xsram[141] sram->in sram[141]->out sram[141]->outb gvdd_sram_luts sgnd  sram6T
.nodeset V(sram[141]->out) 0
.nodeset V(sram[141]->outb) vsp
Xsram[142] sram->in sram[142]->out sram[142]->outb gvdd_sram_luts sgnd  sram6T
.nodeset V(sram[142]->out) 0
.nodeset V(sram[142]->outb) vsp
Xsram[143] sram->in sram[143]->out sram[143]->outb gvdd_sram_luts sgnd  sram6T
.nodeset V(sram[143]->out) 0
.nodeset V(sram[143]->outb) vsp
Xsram[144] sram->in sram[144]->out sram[144]->outb gvdd_sram_luts sgnd  sram6T
.nodeset V(sram[144]->out) 0
.nodeset V(sram[144]->outb) vsp
Xsram[145] sram->in sram[145]->out sram[145]->outb gvdd_sram_luts sgnd  sram6T
.nodeset V(sram[145]->out) 0
.nodeset V(sram[145]->outb) vsp
Xsram[146] sram->in sram[146]->out sram[146]->outb gvdd_sram_luts sgnd  sram6T
.nodeset V(sram[146]->out) 0
.nodeset V(sram[146]->outb) vsp
Xsram[147] sram->in sram[147]->out sram[147]->outb gvdd_sram_luts sgnd  sram6T
.nodeset V(sram[147]->out) 0
.nodeset V(sram[147]->outb) vsp
Xsram[148] sram->in sram[148]->out sram[148]->outb gvdd_sram_luts sgnd  sram6T
.nodeset V(sram[148]->out) 0
.nodeset V(sram[148]->outb) vsp
Xsram[149] sram->in sram[149]->out sram[149]->outb gvdd_sram_luts sgnd  sram6T
.nodeset V(sram[149]->out) 0